ieee-cdf/ieee-cdf-converter/src/test/resources/ieee300cdf.xiidm
<?xml version="1.0" encoding="UTF-8"?>
<iidm:network xmlns:iidm="http://www.powsybl.org/schema/iidm/1_18" xmlns:slt="http://www.powsybl.org/schema/iidm/ext/slack_terminal/1_5" id="ieee300cdf" caseDate="1991-05-13T00:00:00.000Z" forecastDistance="0" sourceFormat="IEEE-CDF" minimumValidationLevel="STEADY_STATE_HYPOTHESIS">
    <iidm:substation id="S1">
        <iidm:voltageLevel id="VL1" nominalV="115.0" topologyKind="BUS_BREAKER">
            <iidm:busBreakerTopology>
                <iidm:bus id="B1" name="1" v="118.26599999999999" angle="5.95"/>
                <iidm:bus id="B2" name="1" v="119.07100000000001" angle="7.74"/>
            </iidm:busBreakerTopology>
            <iidm:load id="B1-L" loadType="UNDEFINED" p0="90.0" q0="49.0" bus="B1" connectableBus="B1"/>
            <iidm:load id="B2-L" loadType="UNDEFINED" p0="56.0" q0="15.0" bus="B2" connectableBus="B2"/>
        </iidm:voltageLevel>
        <iidm:voltageLevel id="VL3" nominalV="230.0" topologyKind="BUS_BREAKER">
            <iidm:busBreakerTopology>
                <iidm:bus id="B3" name="1" v="229.333" angle="6.64"/>
            </iidm:busBreakerTopology>
            <iidm:load id="B3-L" loadType="UNDEFINED" p0="20.0" q0="0.0" bus="B3" connectableBus="B3"/>
        </iidm:voltageLevel>
        <iidm:voltageLevel id="VL4" nominalV="345.0" topologyKind="BUS_BREAKER">
            <iidm:busBreakerTopology>
                <iidm:bus id="B4" name="1" v="355.626" angle="4.71"/>
            </iidm:busBreakerTopology>
        </iidm:voltageLevel>
        <iidm:voltageLevel id="VL7001" nominalV="13.8" topologyKind="BUS_BREAKER">
            <iidm:busBreakerTopology>
                <iidm:bus id="B7001" name="1" v="14.49966" angle="10.79"/>
                <iidm:bus id="B7002" name="1" v="14.49966" angle="12.48"/>
                <iidm:bus id="B7003" name="1" v="14.245740000000001" angle="13.76"/>
            </iidm:busBreakerTopology>
            <iidm:generator id="B7001-G" energySource="OTHER" minP="-9999.0" maxP="9999.0" targetP="467.0" localTargetV="14.49966" localTargetQ="0.0" bus="B7001" connectableBus="B7001">
                <iidm:minMaxReactiveLimits minQ="-210.0" maxQ="210.0"/>
                <iidm:voltageRegulation mode="VOLTAGE" regulating="true"/>
            </iidm:generator>
            <iidm:generator id="B7002-G" energySource="OTHER" minP="-9999.0" maxP="9999.0" targetP="623.0" localTargetV="14.49966" localTargetQ="0.0" bus="B7002" connectableBus="B7002">
                <iidm:minMaxReactiveLimits minQ="-280.0" maxQ="280.0"/>
                <iidm:voltageRegulation mode="VOLTAGE" regulating="true"/>
            </iidm:generator>
            <iidm:generator id="B7003-G" energySource="OTHER" minP="-9999.0" maxP="9999.0" targetP="1210.0" localTargetV="14.245740000000001" localTargetQ="0.0" bus="B7003" connectableBus="B7003">
                <iidm:minMaxReactiveLimits minQ="-420.0" maxQ="420.0"/>
                <iidm:voltageRegulation mode="VOLTAGE" regulating="true"/>
            </iidm:generator>
        </iidm:voltageLevel>
        <iidm:twoWindingsTransformer id="T3-1-1" r="0.0" x="6.877" ratedU1="217.81" ratedU2="115.0" bus1="B3" connectableBus1="B3" voltageLevelId1="VL3" bus2="B1" connectableBus2="B1" voltageLevelId2="VL1">
            <iidm:ratioTapChanger tapPosition="0" loadTapChangingCapabilities="true">
                <iidm:step rho="1.0"/>
                <iidm:voltageRegulation mode="VOLTAGE" regulating="true" targetValue="118.26599999999999" targetDeadband="0.0">
                    <iidm:terminalRef id="T3-1-1" side="TWO"/>
                </iidm:voltageRegulation>
            </iidm:ratioTapChanger>
        </iidm:twoWindingsTransformer>
        <iidm:twoWindingsTransformer id="T7001-1-1" r="0.0" x="2.5828425" ratedU1="13.8" ratedU2="115.0" bus1="B7001" connectableBus1="B7001" voltageLevelId1="VL7001" bus2="B1" connectableBus2="B1" voltageLevelId2="VL1"/>
        <iidm:twoWindingsTransformer id="T3-2-1" r="0.0" x="6.877" ratedU1="219.88" ratedU2="115.0" bus1="B3" connectableBus1="B3" voltageLevelId1="VL3" bus2="B2" connectableBus2="B2" voltageLevelId2="VL1">
            <iidm:ratioTapChanger tapPosition="0" loadTapChangingCapabilities="true">
                <iidm:step rho="1.0"/>
                <iidm:voltageRegulation mode="VOLTAGE" regulating="true" targetValue="119.07100000000001" targetDeadband="0.0">
                    <iidm:terminalRef id="T3-2-1" side="TWO"/>
                </iidm:voltageRegulation>
            </iidm:ratioTapChanger>
        </iidm:twoWindingsTransformer>
        <iidm:twoWindingsTransformer id="T7002-2-1" r="0.13225" x="1.93085" ratedU1="13.8" ratedU2="115.0" bus1="B7002" connectableBus1="B7002" voltageLevelId1="VL7001" bus2="B2" connectableBus2="B2" voltageLevelId2="VL1"/>
        <iidm:twoWindingsTransformer id="T3-4-1" r="0.0" x="5.95125" ratedU1="223.32999999999998" ratedU2="345.0" bus1="B3" connectableBus1="B3" voltageLevelId1="VL3" bus2="B4" connectableBus2="B4" voltageLevelId2="VL4">
            <iidm:ratioTapChanger tapPosition="0" loadTapChangingCapabilities="true">
                <iidm:step rho="1.0"/>
                <iidm:voltageRegulation mode="VOLTAGE" regulating="true" targetValue="355.626" targetDeadband="0.0">
                    <iidm:terminalRef id="T3-4-1" side="TWO"/>
                </iidm:voltageRegulation>
            </iidm:ratioTapChanger>
        </iidm:twoWindingsTransformer>
        <iidm:twoWindingsTransformer id="T7003-3-1" r="0.0" x="5.57566" ratedU1="13.8" ratedU2="230.0" bus1="B7003" connectableBus1="B7003" voltageLevelId1="VL7001" bus2="B3" connectableBus2="B3" voltageLevelId2="VL3"/>
    </iidm:substation>
    <iidm:substation id="S5">
        <iidm:voltageLevel id="VL5" nominalV="115.0" topologyKind="BUS_BREAKER">
            <iidm:busBreakerTopology>
                <iidm:bus id="B5" name="1" v="117.19649999999999" angle="4.68"/>
                <iidm:bus id="B6" name="1" v="118.588" angle="6.99"/>
            </iidm:busBreakerTopology>
            <iidm:load id="B5-L" loadType="UNDEFINED" p0="353.0" q0="130.0" bus="B5" connectableBus="B5"/>
            <iidm:load id="B6-L" loadType="UNDEFINED" p0="120.0" q0="41.0" bus="B6" connectableBus="B6"/>
        </iidm:voltageLevel>
        <iidm:voltageLevel id="VL7" nominalV="230.0" topologyKind="BUS_BREAKER">
            <iidm:busBreakerTopology>
                <iidm:bus id="B7" name="1" v="228.482" angle="6.19"/>
            </iidm:busBreakerTopology>
        </iidm:voltageLevel>
        <iidm:twoWindingsTransformer id="T7-5-1" r="0.0" x="5.15775" ratedU1="218.04" ratedU2="115.0" bus1="B7" connectableBus1="B7" voltageLevelId1="VL7" bus2="B5" connectableBus2="B5" voltageLevelId2="VL5">
            <iidm:ratioTapChanger tapPosition="0" loadTapChangingCapabilities="true">
                <iidm:step rho="1.0"/>
                <iidm:voltageRegulation mode="VOLTAGE" regulating="true" targetValue="117.19649999999999" targetDeadband="0.0">
                    <iidm:terminalRef id="T7-5-1" side="TWO"/>
                </iidm:voltageRegulation>
            </iidm:ratioTapChanger>
        </iidm:twoWindingsTransformer>
        <iidm:twoWindingsTransformer id="T7-6-1" r="0.0" x="5.15775" ratedU1="220.57" ratedU2="115.0" bus1="B7" connectableBus1="B7" voltageLevelId1="VL7" bus2="B6" connectableBus2="B6" voltageLevelId2="VL5">
            <iidm:ratioTapChanger tapPosition="0" loadTapChangingCapabilities="true">
                <iidm:step rho="1.0"/>
                <iidm:voltageRegulation mode="VOLTAGE" regulating="true" targetValue="118.588" targetDeadband="0.0">
                    <iidm:terminalRef id="T7-6-1" side="TWO"/>
                </iidm:voltageRegulation>
            </iidm:ratioTapChanger>
        </iidm:twoWindingsTransformer>
    </iidm:substation>
    <iidm:substation id="S8">
        <iidm:voltageLevel id="VL8" nominalV="115.0" topologyKind="BUS_BREAKER">
            <iidm:busBreakerTopology>
                <iidm:bus id="B8" name="1" v="116.75950000000002" angle="2.4"/>
            </iidm:busBreakerTopology>
            <iidm:generator id="B8-G" energySource="OTHER" minP="-9999.0" maxP="9999.0" targetP="-5.0" localTargetV="116.75950000000002" localTargetQ="0.0" bus="B8" connectableBus="B8">
                <iidm:minMaxReactiveLimits minQ="-10.0" maxQ="10.0"/>
                <iidm:voltageRegulation mode="VOLTAGE" regulating="true"/>
            </iidm:generator>
            <iidm:load id="B8-L" loadType="UNDEFINED" p0="58.0" q0="14.0" bus="B8" connectableBus="B8"/>
        </iidm:voltageLevel>
    </iidm:substation>
    <iidm:substation id="S9">
        <iidm:voltageLevel id="VL9" nominalV="115.0" topologyKind="BUS_BREAKER">
            <iidm:busBreakerTopology>
                <iidm:bus id="B9" name="1" v="115.391" angle="2.85"/>
            </iidm:busBreakerTopology>
            <iidm:load id="B9-L" loadType="UNDEFINED" p0="96.0" q0="43.0" bus="B9" connectableBus="B9"/>
        </iidm:voltageLevel>
    </iidm:substation>
    <iidm:substation id="S10">
        <iidm:voltageLevel id="VL10" nominalV="230.0" topologyKind="BUS_BREAKER">
            <iidm:busBreakerTopology>
                <iidm:bus id="B10" name="1" v="234.715" angle="1.35"/>
                <iidm:bus id="B12" name="1" v="229.402" angle="5.21"/>
            </iidm:busBreakerTopology>
            <iidm:generator id="B10-G" energySource="OTHER" minP="-9999.0" maxP="9999.0" targetP="-5.0" localTargetV="234.715" localTargetQ="0.0" bus="B10" connectableBus="B10">
                <iidm:minMaxReactiveLimits minQ="-20.0" maxQ="20.0"/>
                <iidm:voltageRegulation mode="VOLTAGE" regulating="true"/>
            </iidm:generator>
            <iidm:load id="B10-L" loadType="UNDEFINED" p0="148.0" q0="33.0" bus="B10" connectableBus="B10"/>
        </iidm:voltageLevel>
        <iidm:voltageLevel id="VL11" nominalV="115.0" topologyKind="BUS_BREAKER">
            <iidm:busBreakerTopology>
                <iidm:bus id="B11" name="1" v="115.6555" angle="2.46"/>
            </iidm:busBreakerTopology>
            <iidm:load id="B11-L" loadType="UNDEFINED" p0="83.0" q0="21.0" bus="B11" connectableBus="B11"/>
        </iidm:voltageLevel>
        <iidm:voltageLevel id="VL7011" nominalV="13.8" topologyKind="BUS_BREAKER">
            <iidm:busBreakerTopology>
                <iidm:bus id="B7011" name="1" v="14.0001" angle="4.99"/>
                <iidm:bus id="B7012" name="1" v="14.49966" angle="11.57"/>
            </iidm:busBreakerTopology>
            <iidm:generator id="B7011-G" energySource="OTHER" minP="-9999.0" maxP="9999.0" targetP="234.0" localTargetV="14.0001" localTargetQ="0.0" bus="B7011" connectableBus="B7011">
                <iidm:minMaxReactiveLimits minQ="-100.0" maxQ="100.0"/>
                <iidm:voltageRegulation mode="VOLTAGE" regulating="true"/>
            </iidm:generator>
            <iidm:generator id="B7012-G" energySource="OTHER" minP="-9999.0" maxP="9999.0" targetP="372.0" localTargetV="14.49966" localTargetQ="0.0" bus="B7012" connectableBus="B7012">
                <iidm:minMaxReactiveLimits minQ="-224.0" maxQ="224.0"/>
                <iidm:voltageRegulation mode="VOLTAGE" regulating="true"/>
            </iidm:generator>
        </iidm:voltageLevel>
        <iidm:twoWindingsTransformer id="T10-11-1" r="0.0" x="11.770249999999999" ratedU1="240.58" ratedU2="115.0" bus1="B10" connectableBus1="B10" voltageLevelId1="VL10" bus2="B11" connectableBus2="B11" voltageLevelId2="VL11">
            <iidm:ratioTapChanger tapPosition="0" loadTapChangingCapabilities="true">
                <iidm:step rho="1.0"/>
                <iidm:voltageRegulation mode="VOLTAGE" regulating="true" targetValue="115.6555" targetDeadband="0.0">
                    <iidm:terminalRef id="T10-11-1" side="TWO"/>
                </iidm:voltageRegulation>
            </iidm:ratioTapChanger>
        </iidm:twoWindingsTransformer>
        <iidm:twoWindingsTransformer id="T12-10-1" r="0.0" x="28.037" ratedU1="226.54999999999998" ratedU2="230.0" bus1="B12" connectableBus1="B12" voltageLevelId1="VL10" bus2="B10" connectableBus2="B10" voltageLevelId2="VL10"/>
        <iidm:twoWindingsTransformer id="T7012-12-1" r="0.0" x="16.5048" ratedU1="13.8" ratedU2="230.0" bus1="B7012" connectableBus1="B7012" voltageLevelId1="VL7011" bus2="B12" connectableBus2="B12" voltageLevelId2="VL10"/>
        <iidm:twoWindingsTransformer id="T7011-11-1" r="0.0" x="2.5431675" ratedU1="13.8" ratedU2="115.0" bus1="B7011" connectableBus1="B7011" voltageLevelId1="VL7011" bus2="B11" connectableBus2="B11" voltageLevelId2="VL11"/>
    </iidm:substation>
    <iidm:substation id="S13">
        <iidm:voltageLevel id="VL13" nominalV="115.0" topologyKind="BUS_BREAKER">
            <iidm:busBreakerTopology>
                <iidm:bus id="B13" name="1" v="114.7355" angle="-0.55"/>
            </iidm:busBreakerTopology>
            <iidm:load id="B13-L" loadType="UNDEFINED" p0="58.0" q0="10.0" bus="B13" connectableBus="B13"/>
        </iidm:voltageLevel>
    </iidm:substation>
    <iidm:substation id="S14">
        <iidm:voltageLevel id="VL14" nominalV="115.0" topologyKind="BUS_BREAKER">
            <iidm:busBreakerTopology>
                <iidm:bus id="B14" name="1" v="114.8965" angle="-4.81"/>
            </iidm:busBreakerTopology>
            <iidm:load id="B14-L" loadType="UNDEFINED" p0="160.0" q0="60.0" bus="B14" connectableBus="B14"/>
        </iidm:voltageLevel>
    </iidm:substation>
    <iidm:substation id="S15">
        <iidm:voltageLevel id="VL15" nominalV="115.0" topologyKind="BUS_BREAKER">
            <iidm:busBreakerTopology>
                <iidm:bus id="B15" name="1" v="118.9445" angle="-8.59"/>
                <iidm:bus id="B17" name="1" v="122.4635" angle="-13.1"/>
            </iidm:busBreakerTopology>
            <iidm:load id="B15-L" loadType="UNDEFINED" p0="126.7" q0="23.0" bus="B15" connectableBus="B15"/>
            <iidm:load id="B17-L" loadType="UNDEFINED" p0="561.0" q0="220.0" bus="B17" connectableBus="B17"/>
        </iidm:voltageLevel>
        <iidm:voltageLevel id="VL16" nominalV="345.0" topologyKind="BUS_BREAKER">
            <iidm:busBreakerTopology>
                <iidm:bus id="B16" name="1" v="355.8675" angle="-2.65"/>
            </iidm:busBreakerTopology>
        </iidm:voltageLevel>
        <iidm:voltageLevel id="VL7017" nominalV="13.8" topologyKind="BUS_BREAKER">
            <iidm:busBreakerTopology>
                <iidm:bus id="B7017" name="1" v="14.49966" angle="-10.47"/>
            </iidm:busBreakerTopology>
            <iidm:generator id="B7017-G" energySource="OTHER" minP="-9999.0" maxP="9999.0" targetP="330.0" localTargetV="14.49966" localTargetQ="0.0" bus="B7017" connectableBus="B7017">
                <iidm:minMaxReactiveLimits minQ="0.0" maxQ="350.0"/>
                <iidm:voltageRegulation mode="VOLTAGE" regulating="true"/>
            </iidm:generator>
        </iidm:voltageLevel>
        <iidm:twoWindingsTransformer id="T15-17-1" r="2.56565" x="4.112975" ratedU1="109.9515" ratedU2="115.0" bus1="B15" connectableBus1="B15" voltageLevelId1="VL15" bus2="B17" connectableBus2="B17" voltageLevelId2="VL15">
            <iidm:ratioTapChanger tapPosition="0" loadTapChangingCapabilities="true">
                <iidm:step rho="1.0"/>
                <iidm:voltageRegulation mode="VOLTAGE" regulating="true" targetValue="122.4635" targetDeadband="0.0">
                    <iidm:terminalRef id="T15-17-1" side="TWO"/>
                </iidm:voltageRegulation>
            </iidm:ratioTapChanger>
        </iidm:twoWindingsTransformer>
        <iidm:twoWindingsTransformer id="T16-15-1" r="0.13225" x="5.0255" ratedU1="334.995" ratedU2="115.0" bus1="B16" connectableBus1="B16" voltageLevelId1="VL16" bus2="B15" connectableBus2="B15" voltageLevelId2="VL15">
            <iidm:ratioTapChanger tapPosition="0" loadTapChangingCapabilities="true">
                <iidm:step rho="1.0"/>
                <iidm:voltageRegulation mode="VOLTAGE" regulating="true" targetValue="118.9445" targetDeadband="0.0">
                    <iidm:terminalRef id="T16-15-1" side="TWO"/>
                </iidm:voltageRegulation>
            </iidm:ratioTapChanger>
        </iidm:twoWindingsTransformer>
        <iidm:twoWindingsTransformer id="T7017-17-1" r="0.0" x="2.1874149999999997" ratedU1="12.9996" ratedU2="115.0" bus1="B7017" connectableBus1="B7017" voltageLevelId1="VL7017" bus2="B17" connectableBus2="B17" voltageLevelId2="VL15"/>
    </iidm:substation>
    <iidm:substation id="S19">
        <iidm:voltageLevel id="VL19" nominalV="230.0" topologyKind="BUS_BREAKER">
            <iidm:busBreakerTopology>
                <iidm:bus id="B19" name="1" v="225.85999999999999" angle="1.08"/>
            </iidm:busBreakerTopology>
        </iidm:voltageLevel>
    </iidm:substation>
    <iidm:substation id="S20">
        <iidm:voltageLevel id="VL20" nominalV="115.0" topologyKind="BUS_BREAKER">
            <iidm:busBreakerTopology>
                <iidm:bus id="B20" name="1" v="115.11499999999998" angle="-2.46"/>
            </iidm:busBreakerTopology>
            <iidm:generator id="B20-G" energySource="OTHER" minP="-9999.0" maxP="9999.0" targetP="-10.0" localTargetV="115.11499999999998" localTargetQ="0.0" bus="B20" connectableBus="B20">
                <iidm:minMaxReactiveLimits minQ="-20.0" maxQ="20.0"/>
                <iidm:voltageRegulation mode="VOLTAGE" regulating="true"/>
            </iidm:generator>
            <iidm:load id="B20-L" loadType="UNDEFINED" p0="595.0" q0="120.0" bus="B20" connectableBus="B20"/>
        </iidm:voltageLevel>
        <iidm:voltageLevel id="VL21" nominalV="230.0" topologyKind="BUS_BREAKER">
            <iidm:busBreakerTopology>
                <iidm:bus id="B21" name="1" v="224.296" angle="1.62"/>
            </iidm:busBreakerTopology>
            <iidm:load id="B21-L" loadType="UNDEFINED" p0="77.0" q0="1.0" bus="B21" connectableBus="B21"/>
        </iidm:voltageLevel>
        <iidm:twoWindingsTransformer id="T21-20-1" r="0.0" x="1.8515000000000001" ratedU1="218.95999999999998" ratedU2="115.0" bus1="B21" connectableBus1="B21" voltageLevelId1="VL21" bus2="B20" connectableBus2="B20" voltageLevelId2="VL20"/>
    </iidm:substation>
    <iidm:substation id="S22">
        <iidm:voltageLevel id="VL22" nominalV="115.0" topologyKind="BUS_BREAKER">
            <iidm:busBreakerTopology>
                <iidm:bus id="B22" name="1" v="114.5745" angle="-1.97"/>
            </iidm:busBreakerTopology>
            <iidm:load id="B22-L" loadType="UNDEFINED" p0="81.0" q0="23.0" bus="B22" connectableBus="B22"/>
        </iidm:voltageLevel>
    </iidm:substation>
    <iidm:substation id="S23">
        <iidm:voltageLevel id="VL23" nominalV="115.0" topologyKind="BUS_BREAKER">
            <iidm:busBreakerTopology>
                <iidm:bus id="B23" name="1" v="120.7615" angle="3.94"/>
            </iidm:busBreakerTopology>
            <iidm:load id="B23-L" loadType="UNDEFINED" p0="21.0" q0="7.0" bus="B23" connectableBus="B23"/>
        </iidm:voltageLevel>
        <iidm:voltageLevel id="VL24" nominalV="230.0" topologyKind="BUS_BREAKER">
            <iidm:busBreakerTopology>
                <iidm:bus id="B24" name="1" v="231.311" angle="6.02"/>
            </iidm:busBreakerTopology>
        </iidm:voltageLevel>
        <iidm:voltageLevel id="VL7023" nominalV="13.8" topologyKind="BUS_BREAKER">
            <iidm:busBreakerTopology>
                <iidm:bus id="B7023" name="1" v="14.49966" angle="6.15"/>
                <iidm:bus id="B7024" name="1" v="14.200199999999999" angle="12.6"/>
            </iidm:busBreakerTopology>
            <iidm:generator id="B7023-G" energySource="OTHER" minP="-9999.0" maxP="9999.0" targetP="185.0" localTargetV="14.49966" localTargetQ="0.0" bus="B7023" connectableBus="B7023">
                <iidm:minMaxReactiveLimits minQ="0.0" maxQ="120.0"/>
                <iidm:voltageRegulation mode="VOLTAGE" regulating="true"/>
            </iidm:generator>
            <iidm:generator id="B7024-G" energySource="OTHER" minP="-9999.0" maxP="9999.0" targetP="410.0" localTargetV="14.200199999999999" localTargetQ="0.0" bus="B7024" connectableBus="B7024">
                <iidm:minMaxReactiveLimits minQ="-224.0" maxQ="224.0"/>
                <iidm:voltageRegulation mode="VOLTAGE" regulating="true"/>
            </iidm:generator>
        </iidm:voltageLevel>
        <iidm:twoWindingsTransformer id="T24-23-1" r="0.0" x="8.464" ratedU1="216.89" ratedU2="115.0" bus1="B24" connectableBus1="B24" voltageLevelId1="VL24" bus2="B23" connectableBus2="B23" voltageLevelId2="VL23">
            <iidm:ratioTapChanger tapPosition="0" loadTapChangingCapabilities="true">
                <iidm:step rho="1.0"/>
                <iidm:voltageRegulation mode="VOLTAGE" regulating="true" targetValue="120.7615" targetDeadband="0.0">
                    <iidm:terminalRef id="T24-23-1" side="TWO"/>
                </iidm:voltageRegulation>
            </iidm:ratioTapChanger>
        </iidm:twoWindingsTransformer>
        <iidm:twoWindingsTransformer id="T7023-23-1" r="0.0" x="3.04175" ratedU1="13.8" ratedU2="115.0" bus1="B7023" connectableBus1="B7023" voltageLevelId1="VL7023" bus2="B23" connectableBus2="B23" voltageLevelId2="VL23"/>
        <iidm:twoWindingsTransformer id="T7024-24-1" r="0.0" x="15.2881" ratedU1="13.8" ratedU2="230.0" bus1="B7024" connectableBus1="B7024" voltageLevelId1="VL7023" bus2="B24" connectableBus2="B24" voltageLevelId2="VL24"/>
    </iidm:substation>
    <iidm:substation id="S25">
        <iidm:voltageLevel id="VL25" nominalV="115.0" topologyKind="BUS_BREAKER">
            <iidm:busBreakerTopology>
                <iidm:bus id="B25" name="1" v="117.69100000000002" angle="1.44"/>
            </iidm:busBreakerTopology>
            <iidm:load id="B25-L" loadType="UNDEFINED" p0="45.0" q0="12.0" bus="B25" connectableBus="B25"/>
        </iidm:voltageLevel>
    </iidm:substation>
    <iidm:substation id="S26">
        <iidm:voltageLevel id="VL26" nominalV="115.0" topologyKind="BUS_BREAKER">
            <iidm:busBreakerTopology>
                <iidm:bus id="B26" name="1" v="114.839" angle="-1.73"/>
            </iidm:busBreakerTopology>
            <iidm:load id="B26-L" loadType="UNDEFINED" p0="28.0" q0="9.0" bus="B26" connectableBus="B26"/>
        </iidm:voltageLevel>
    </iidm:substation>
    <iidm:substation id="S27">
        <iidm:voltageLevel id="VL27" nominalV="115.0" topologyKind="BUS_BREAKER">
            <iidm:busBreakerTopology>
                <iidm:bus id="B27" name="1" v="112.125" angle="-4.9"/>
            </iidm:busBreakerTopology>
            <iidm:load id="B27-L" loadType="UNDEFINED" p0="69.0" q0="13.0" bus="B27" connectableBus="B27"/>
        </iidm:voltageLevel>
    </iidm:substation>
    <iidm:substation id="S33">
        <iidm:voltageLevel id="VL33" nominalV="115.0" topologyKind="BUS_BREAKER">
            <iidm:busBreakerTopology>
                <iidm:bus id="B33" name="1" v="117.806" angle="-12.02"/>
            </iidm:busBreakerTopology>
            <iidm:load id="B33-L" loadType="UNDEFINED" p0="55.0" q0="6.0" bus="B33" connectableBus="B33"/>
        </iidm:voltageLevel>
    </iidm:substation>
    <iidm:substation id="S34">
        <iidm:voltageLevel id="VL34" nominalV="345.0" topologyKind="BUS_BREAKER">
            <iidm:busBreakerTopology>
                <iidm:bus id="B34" name="1" v="359.283" angle="-7.94"/>
            </iidm:busBreakerTopology>
        </iidm:voltageLevel>
    </iidm:substation>
    <iidm:substation id="S35">
        <iidm:voltageLevel id="VL35" nominalV="115.0" topologyKind="BUS_BREAKER">
            <iidm:busBreakerTopology>
                <iidm:bus id="B35" name="1" v="112.2055" angle="-25.72"/>
            </iidm:busBreakerTopology>
        </iidm:voltageLevel>
        <iidm:voltageLevel id="VL36" nominalV="230.0" topologyKind="BUS_BREAKER">
            <iidm:busBreakerTopology>
                <iidm:bus id="B36" name="1" v="230.25300000000001" angle="-22.59"/>
            </iidm:busBreakerTopology>
        </iidm:voltageLevel>
        <iidm:twoWindingsTransformer id="T36-35-1" r="0.0" x="6.21575" ratedU1="232.3" ratedU2="115.0" bus1="B36" connectableBus1="B36" voltageLevelId1="VL36" bus2="B35" connectableBus2="B35" voltageLevelId2="VL35">
            <iidm:ratioTapChanger tapPosition="0" loadTapChangingCapabilities="true">
                <iidm:step rho="1.0"/>
                <iidm:voltageRegulation mode="VOLTAGE" regulating="true" targetValue="112.2055" targetDeadband="0.0">
                    <iidm:terminalRef id="T36-35-1" side="TWO"/>
                </iidm:voltageRegulation>
            </iidm:ratioTapChanger>
        </iidm:twoWindingsTransformer>
    </iidm:substation>
    <iidm:substation id="S37">
        <iidm:voltageLevel id="VL37" nominalV="115.0" topologyKind="BUS_BREAKER">
            <iidm:busBreakerTopology>
                <iidm:bus id="B37" name="1" v="117.3115" angle="-11.23"/>
                <iidm:bus id="B9001" name="1" v="116.3455" angle="-11.25"/>
            </iidm:busBreakerTopology>
            <iidm:load id="B37-L" loadType="UNDEFINED" p0="85.0" q0="32.0" bus="B37" connectableBus="B37"/>
        </iidm:voltageLevel>
        <iidm:voltageLevel id="VL9006" nominalV="6.6" topologyKind="BUS_BREAKER">
            <iidm:busBreakerTopology>
                <iidm:bus id="B9006" name="1" v="6.619139999999999" angle="-17.42"/>
                <iidm:bus id="B9012" name="1" v="6.61518" angle="-17.27"/>
            </iidm:busBreakerTopology>
        </iidm:voltageLevel>
        <iidm:twoWindingsTransformer id="T37-9001-1" r="0.007935" x="0.060835" ratedU1="115.943" ratedU2="115.0" bus1="B37" connectableBus1="B37" voltageLevelId1="VL37" bus2="B9001" connectableBus2="B9001" voltageLevelId2="VL37">
            <iidm:ratioTapChanger tapPosition="0" loadTapChangingCapabilities="true">
                <iidm:step rho="1.0"/>
                <iidm:voltageRegulation mode="VOLTAGE" regulating="false"/>
            </iidm:ratioTapChanger>
        </iidm:twoWindingsTransformer>
        <iidm:twoWindingsTransformer id="T9001-9006-1" r="0.010624283999999998" x="0.19027879199999997" ratedU1="111.182" ratedU2="6.6" bus1="B9001" connectableBus1="B9001" voltageLevelId1="VL37" bus2="B9006" connectableBus2="B9006" voltageLevelId2="VL9006">
            <iidm:ratioTapChanger tapPosition="0" loadTapChangingCapabilities="true">
                <iidm:step rho="1.0"/>
                <iidm:voltageRegulation mode="VOLTAGE" regulating="true" targetValue="6.619139999999999" targetDeadband="0.0">
                    <iidm:terminalRef id="T9001-9006-1" side="TWO"/>
                </iidm:voltageRegulation>
            </iidm:ratioTapChanger>
        </iidm:twoWindingsTransformer>
        <iidm:twoWindingsTransformer id="T9001-9012-1" r="0.015786144" x="0.28269568799999995" ratedU1="112.654" ratedU2="6.6" bus1="B9001" connectableBus1="B9001" voltageLevelId1="VL37" bus2="B9012" connectableBus2="B9012" voltageLevelId2="VL9006">
            <iidm:ratioTapChanger tapPosition="0" loadTapChangingCapabilities="true">
                <iidm:step rho="1.0"/>
                <iidm:voltageRegulation mode="VOLTAGE" regulating="true" targetValue="6.61518" targetDeadband="0.0">
                    <iidm:terminalRef id="T9001-9012-1" side="TWO"/>
                </iidm:voltageRegulation>
            </iidm:ratioTapChanger>
        </iidm:twoWindingsTransformer>
    </iidm:substation>
    <iidm:substation id="S38">
        <iidm:voltageLevel id="VL38" nominalV="115.0" topologyKind="BUS_BREAKER">
            <iidm:busBreakerTopology>
                <iidm:bus id="B38" name="1" v="117.323" angle="-12.56"/>
            </iidm:busBreakerTopology>
            <iidm:load id="B38-L" loadType="UNDEFINED" p0="155.0" q0="18.0" bus="B38" connectableBus="B38"/>
        </iidm:voltageLevel>
    </iidm:substation>
    <iidm:substation id="S39">
        <iidm:voltageLevel id="VL39" nominalV="345.0" topologyKind="BUS_BREAKER">
            <iidm:busBreakerTopology>
                <iidm:bus id="B39" name="1" v="363.45750000000004" angle="-5.81"/>
            </iidm:busBreakerTopology>
        </iidm:voltageLevel>
        <iidm:voltageLevel id="VL7039" nominalV="20.0" topologyKind="BUS_BREAKER">
            <iidm:busBreakerTopology>
                <iidm:bus id="B7039" name="1" v="21.0" angle="2.11"/>
            </iidm:busBreakerTopology>
            <iidm:generator id="B7039-G" energySource="OTHER" minP="-9999.0" maxP="9999.0" targetP="500.0" localTargetV="21.0" localTargetQ="0.0" bus="B7039" connectableBus="B7039">
                <iidm:minMaxReactiveLimits minQ="-200.0" maxQ="200.0"/>
                <iidm:voltageRegulation mode="VOLTAGE" regulating="true"/>
            </iidm:generator>
        </iidm:voltageLevel>
        <iidm:twoWindingsTransformer id="T7039-39-1" r="0.0" x="37.5999975" ratedU1="19.3" ratedU2="345.0" bus1="B7039" connectableBus1="B7039" voltageLevelId1="VL7039" bus2="B39" connectableBus2="B39" voltageLevelId2="VL39"/>
    </iidm:substation>
    <iidm:substation id="S40">
        <iidm:voltageLevel id="VL40" nominalV="115.0" topologyKind="BUS_BREAKER">
            <iidm:busBreakerTopology>
                <iidm:bus id="B40" name="1" v="117.48400000000001" angle="-12.78"/>
            </iidm:busBreakerTopology>
            <iidm:load id="B40-L" loadType="UNDEFINED" p0="46.0" q0="-21.0" bus="B40" connectableBus="B40"/>
        </iidm:voltageLevel>
    </iidm:substation>
    <iidm:substation id="S41">
        <iidm:voltageLevel id="VL41" nominalV="115.0" topologyKind="BUS_BREAKER">
            <iidm:busBreakerTopology>
                <iidm:bus id="B41" name="1" v="118.35799999999999" angle="-10.45"/>
            </iidm:busBreakerTopology>
            <iidm:load id="B41-L" loadType="UNDEFINED" p0="86.0" q0="0.0" bus="B41" connectableBus="B41"/>
        </iidm:voltageLevel>
    </iidm:substation>
    <iidm:substation id="S42">
        <iidm:voltageLevel id="VL42" nominalV="345.0" topologyKind="BUS_BREAKER">
            <iidm:busBreakerTopology>
                <iidm:bus id="B42" name="1" v="360.45599999999996" angle="-7.44"/>
            </iidm:busBreakerTopology>
        </iidm:voltageLevel>
    </iidm:substation>
    <iidm:substation id="S43">
        <iidm:voltageLevel id="VL43" nominalV="115.0" topologyKind="BUS_BREAKER">
            <iidm:busBreakerTopology>
                <iidm:bus id="B43" name="1" v="115.06899999999999" angle="-16.79"/>
            </iidm:busBreakerTopology>
            <iidm:load id="B43-L" loadType="UNDEFINED" p0="39.0" q0="9.0" bus="B43" connectableBus="B43"/>
        </iidm:voltageLevel>
    </iidm:substation>
    <iidm:substation id="S44">
        <iidm:voltageLevel id="VL44" nominalV="115.0" topologyKind="BUS_BREAKER">
            <iidm:busBreakerTopology>
                <iidm:bus id="B44" name="1" v="115.98899999999999" angle="-17.47"/>
            </iidm:busBreakerTopology>
            <iidm:load id="B44-L" loadType="UNDEFINED" p0="195.0" q0="29.0" bus="B44" connectableBus="B44"/>
        </iidm:voltageLevel>
        <iidm:voltageLevel id="VL45" nominalV="230.0" topologyKind="BUS_BREAKER">
            <iidm:busBreakerTopology>
                <iidm:bus id="B45" name="1" v="234.94500000000002" angle="-14.74"/>
            </iidm:busBreakerTopology>
        </iidm:voltageLevel>
        <iidm:voltageLevel id="VL46" nominalV="345.0" topologyKind="BUS_BREAKER">
            <iidm:busBreakerTopology>
                <iidm:bus id="B46" name="1" v="356.868" angle="-11.75"/>
            </iidm:busBreakerTopology>
        </iidm:voltageLevel>
        <iidm:voltageLevel id="VL7044" nominalV="13.8" topologyKind="BUS_BREAKER">
            <iidm:busBreakerTopology>
                <iidm:bus id="B7044" name="1" v="14.0001" angle="-13.92"/>
            </iidm:busBreakerTopology>
            <iidm:generator id="B7044-G" energySource="OTHER" minP="-9999.0" maxP="9999.0" targetP="37.0" localTargetV="14.0001" localTargetQ="0.0" bus="B7044" connectableBus="B7044">
                <iidm:minMaxReactiveLimits minQ="0.0" maxQ="42.0"/>
                <iidm:voltageRegulation mode="VOLTAGE" regulating="true"/>
            </iidm:generator>
        </iidm:voltageLevel>
        <iidm:twoWindingsTransformer id="T45-44-1" r="0.0" x="2.645" ratedU1="231.84" ratedU2="115.0" bus1="B45" connectableBus1="B45" voltageLevelId1="VL45" bus2="B44" connectableBus2="B44" voltageLevelId2="VL44">
            <iidm:ratioTapChanger tapPosition="0" loadTapChangingCapabilities="true">
                <iidm:step rho="1.0"/>
                <iidm:voltageRegulation mode="VOLTAGE" regulating="true" targetValue="115.98899999999999" targetDeadband="0.0">
                    <iidm:terminalRef id="T45-44-1" side="TWO"/>
                </iidm:voltageRegulation>
            </iidm:ratioTapChanger>
        </iidm:twoWindingsTransformer>
        <iidm:twoWindingsTransformer id="T7044-44-1" r="0.0" x="24.0443725" ratedU1="12.9996" ratedU2="115.0" bus1="B7044" connectableBus1="B7044" voltageLevelId1="VL7044" bus2="B44" connectableBus2="B44" voltageLevelId2="VL44"/>
        <iidm:twoWindingsTransformer id="T45-46-1" r="0.0" x="24.995250000000002" ratedU1="230.0" ratedU2="345.0" bus1="B45" connectableBus1="B45" voltageLevelId1="VL45" bus2="B46" connectableBus2="B46" voltageLevelId2="VL46">
            <iidm:ratioTapChanger tapPosition="0" loadTapChangingCapabilities="true">
                <iidm:step rho="1.0"/>
                <iidm:voltageRegulation mode="VOLTAGE" regulating="true" targetValue="356.868" targetDeadband="0.0">
                    <iidm:terminalRef id="T45-46-1" side="TWO"/>
                </iidm:voltageRegulation>
            </iidm:ratioTapChanger>
        </iidm:twoWindingsTransformer>
    </iidm:substation>
    <iidm:substation id="S47">
        <iidm:voltageLevel id="VL47" nominalV="115.0" topologyKind="BUS_BREAKER">
            <iidm:busBreakerTopology>
                <iidm:bus id="B47" name="1" v="112.4355" angle="-23.17"/>
            </iidm:busBreakerTopology>
            <iidm:load id="B47-L" loadType="UNDEFINED" p0="58.0" q0="11.8" bus="B47" connectableBus="B47"/>
        </iidm:voltageLevel>
    </iidm:substation>
    <iidm:substation id="S48">
        <iidm:voltageLevel id="VL48" nominalV="115.0" topologyKind="BUS_BREAKER">
            <iidm:busBreakerTopology>
                <iidm:bus id="B48" name="1" v="115.2185" angle="-16.09"/>
            </iidm:busBreakerTopology>
            <iidm:load id="B48-L" loadType="UNDEFINED" p0="41.0" q0="19.0" bus="B48" connectableBus="B48"/>
        </iidm:voltageLevel>
    </iidm:substation>
    <iidm:substation id="S49">
        <iidm:voltageLevel id="VL49" nominalV="115.0" topologyKind="BUS_BREAKER">
            <iidm:busBreakerTopology>
                <iidm:bus id="B49" name="1" v="120.4625" angle="-2.95"/>
            </iidm:busBreakerTopology>
            <iidm:load id="B49-L" loadType="UNDEFINED" p0="92.0" q0="26.0" bus="B49" connectableBus="B49"/>
        </iidm:voltageLevel>
        <iidm:voltageLevel id="VL7049" nominalV="13.8" topologyKind="BUS_BREAKER">
            <iidm:busBreakerTopology>
                <iidm:bus id="B7049" name="1" v="14.49966" angle="0.0"/>
            </iidm:busBreakerTopology>
            <iidm:generator id="B7049-G" energySource="OTHER" minP="-9999.0" maxP="9999.0" targetP="0.0" localTargetV="14.49966" localTargetQ="0.0" bus="B7049" connectableBus="B7049">
                <iidm:minMaxReactiveLimits minQ="-1.7976931348623157E308" maxQ="1.7976931348623157E308"/>
                <iidm:voltageRegulation mode="VOLTAGE" regulating="true"/>
            </iidm:generator>
        </iidm:voltageLevel>
        <iidm:twoWindingsTransformer id="T7049-49-1" r="0.0" x="1.6399" ratedU1="13.8" ratedU2="115.0" bus1="B7049" connectableBus1="B7049" voltageLevelId1="VL7049" bus2="B49" connectableBus2="B49" voltageLevelId2="VL49"/>
    </iidm:substation>
    <iidm:substation id="S51">
        <iidm:voltageLevel id="VL51" nominalV="115.0" topologyKind="BUS_BREAKER">
            <iidm:busBreakerTopology>
                <iidm:bus id="B51" name="1" v="117.90950000000001" angle="-8.15"/>
            </iidm:busBreakerTopology>
            <iidm:load id="B51-L" loadType="UNDEFINED" p0="-5.0" q0="5.0" bus="B51" connectableBus="B51"/>
        </iidm:voltageLevel>
    </iidm:substation>
    <iidm:substation id="S52">
        <iidm:voltageLevel id="VL52" nominalV="115.0" topologyKind="BUS_BREAKER">
            <iidm:busBreakerTopology>
                <iidm:bus id="B52" name="1" v="114.7585" angle="-11.86"/>
            </iidm:busBreakerTopology>
            <iidm:load id="B52-L" loadType="UNDEFINED" p0="61.0" q0="28.0" bus="B52" connectableBus="B52"/>
        </iidm:voltageLevel>
    </iidm:substation>
    <iidm:substation id="S53">
        <iidm:voltageLevel id="VL53" nominalV="115.0" topologyKind="BUS_BREAKER">
            <iidm:busBreakerTopology>
                <iidm:bus id="B53" name="1" v="114.5285" angle="-17.6"/>
            </iidm:busBreakerTopology>
            <iidm:load id="B53-L" loadType="UNDEFINED" p0="69.0" q0="3.0" bus="B53" connectableBus="B53"/>
        </iidm:voltageLevel>
    </iidm:substation>
    <iidm:substation id="S54">
        <iidm:voltageLevel id="VL54" nominalV="115.0" topologyKind="BUS_BREAKER">
            <iidm:busBreakerTopology>
                <iidm:bus id="B54" name="1" v="115.57499999999999" angle="-16.25"/>
            </iidm:busBreakerTopology>
            <iidm:load id="B54-L" loadType="UNDEFINED" p0="10.0" q0="1.0" bus="B54" connectableBus="B54"/>
        </iidm:voltageLevel>
    </iidm:substation>
    <iidm:substation id="S55">
        <iidm:voltageLevel id="VL55" nominalV="115.0" topologyKind="BUS_BREAKER">
            <iidm:busBreakerTopology>
                <iidm:bus id="B55" name="1" v="116.725" angle="-12.21"/>
            </iidm:busBreakerTopology>
            <iidm:load id="B55-L" loadType="UNDEFINED" p0="22.0" q0="10.0" bus="B55" connectableBus="B55"/>
        </iidm:voltageLevel>
        <iidm:voltageLevel id="VL7055" nominalV="13.8" topologyKind="BUS_BREAKER">
            <iidm:busBreakerTopology>
                <iidm:bus id="B7055" name="1" v="13.754460000000002" angle="-7.5"/>
            </iidm:busBreakerTopology>
            <iidm:generator id="B7055-G" energySource="OTHER" minP="-9999.0" maxP="9999.0" targetP="45.0" localTargetV="13.754460000000002" localTargetQ="0.0" bus="B7055" connectableBus="B7055">
                <iidm:minMaxReactiveLimits minQ="0.0" maxQ="25.0"/>
                <iidm:voltageRegulation mode="VOLTAGE" regulating="true"/>
            </iidm:generator>
        </iidm:voltageLevel>
        <iidm:twoWindingsTransformer id="T7055-55-1" r="0.0" x="25.9302575" ratedU1="12.9996" ratedU2="115.0" bus1="B7055" connectableBus1="B7055" voltageLevelId1="VL7055" bus2="B55" connectableBus2="B55" voltageLevelId2="VL55"/>
    </iidm:substation>
    <iidm:substation id="S57">
        <iidm:voltageLevel id="VL57" nominalV="115.0" topologyKind="BUS_BREAKER">
            <iidm:busBreakerTopology>
                <iidm:bus id="B57" name="1" v="118.8525" angle="-8.0"/>
            </iidm:busBreakerTopology>
            <iidm:load id="B57-L" loadType="UNDEFINED" p0="98.0" q0="20.0" bus="B57" connectableBus="B57"/>
        </iidm:voltageLevel>
        <iidm:voltageLevel id="VL7057" nominalV="13.8" topologyKind="BUS_BREAKER">
            <iidm:busBreakerTopology>
                <iidm:bus id="B7057" name="1" v="14.092560000000002" angle="-3.44"/>
            </iidm:busBreakerTopology>
            <iidm:generator id="B7057-G" energySource="OTHER" minP="-9999.0" maxP="9999.0" targetP="165.0" localTargetV="14.092560000000002" localTargetQ="0.0" bus="B7057" connectableBus="B7057">
                <iidm:minMaxReactiveLimits minQ="-90.0" maxQ="90.0"/>
                <iidm:voltageRegulation mode="VOLTAGE" regulating="true"/>
            </iidm:generator>
        </iidm:voltageLevel>
        <iidm:twoWindingsTransformer id="T7057-57-1" r="0.0" x="7.071407499999999" ratedU1="13.11" ratedU2="115.0" bus1="B7057" connectableBus1="B7057" voltageLevelId1="VL7057" bus2="B57" connectableBus2="B57" voltageLevelId2="VL57"/>
    </iidm:substation>
    <iidm:substation id="S58">
        <iidm:voltageLevel id="VL58" nominalV="115.0" topologyKind="BUS_BREAKER">
            <iidm:busBreakerTopology>
                <iidm:bus id="B58" name="1" v="114.057" angle="-5.99"/>
            </iidm:busBreakerTopology>
            <iidm:load id="B58-L" loadType="UNDEFINED" p0="14.0" q0="1.0" bus="B58" connectableBus="B58"/>
        </iidm:voltageLevel>
    </iidm:substation>
    <iidm:substation id="S59">
        <iidm:voltageLevel id="VL59" nominalV="115.0" topologyKind="BUS_BREAKER">
            <iidm:busBreakerTopology>
                <iidm:bus id="B59" name="1" v="112.5735" angle="-5.29"/>
            </iidm:busBreakerTopology>
            <iidm:load id="B59-L" loadType="UNDEFINED" p0="218.0" q0="106.0" bus="B59" connectableBus="B59"/>
        </iidm:voltageLevel>
    </iidm:substation>
    <iidm:substation id="S60">
        <iidm:voltageLevel id="VL60" nominalV="230.0" topologyKind="BUS_BREAKER">
            <iidm:busBreakerTopology>
                <iidm:bus id="B60" name="1" v="235.658" angle="-9.56"/>
            </iidm:busBreakerTopology>
        </iidm:voltageLevel>
    </iidm:substation>
    <iidm:substation id="S61">
        <iidm:voltageLevel id="VL61" nominalV="115.0" topologyKind="BUS_BREAKER">
            <iidm:busBreakerTopology>
                <iidm:bus id="B61" name="1" v="113.91900000000001" angle="-3.47"/>
            </iidm:busBreakerTopology>
            <iidm:load id="B61-L" loadType="UNDEFINED" p0="227.0" q0="110.0" bus="B61" connectableBus="B61"/>
        </iidm:voltageLevel>
        <iidm:voltageLevel id="VL62" nominalV="230.0" topologyKind="BUS_BREAKER">
            <iidm:busBreakerTopology>
                <iidm:bus id="B62" name="1" v="233.68" angle="-1.1"/>
            </iidm:busBreakerTopology>
        </iidm:voltageLevel>
        <iidm:voltageLevel id="VL7061" nominalV="13.8" topologyKind="BUS_BREAKER">
            <iidm:busBreakerTopology>
                <iidm:bus id="B7061" name="1" v="14.0001" angle="1.97"/>
                <iidm:bus id="B7062" name="1" v="13.82346" angle="5.8"/>
            </iidm:busBreakerTopology>
            <iidm:generator id="B7061-G" energySource="OTHER" minP="-9999.0" maxP="9999.0" targetP="400.0" localTargetV="14.0001" localTargetQ="0.0" bus="B7061" connectableBus="B7061">
                <iidm:minMaxReactiveLimits minQ="-150.0" maxQ="150.0"/>
                <iidm:voltageRegulation mode="VOLTAGE" regulating="true"/>
            </iidm:generator>
            <iidm:generator id="B7062-G" energySource="OTHER" minP="-9999.0" maxP="9999.0" targetP="400.0" localTargetV="13.82346" localTargetQ="0.0" bus="B7062" connectableBus="B7062">
                <iidm:minMaxReactiveLimits minQ="0.0" maxQ="150.0"/>
                <iidm:voltageRegulation mode="VOLTAGE" regulating="true"/>
            </iidm:generator>
        </iidm:voltageLevel>
        <iidm:twoWindingsTransformer id="T62-61-1" r="0.0" x="7.80275" ratedU1="224.25" ratedU2="115.0" bus1="B62" connectableBus1="B62" voltageLevelId1="VL62" bus2="B61" connectableBus2="B61" voltageLevelId2="VL61">
            <iidm:ratioTapChanger tapPosition="0" loadTapChangingCapabilities="true">
                <iidm:step rho="1.0"/>
                <iidm:voltageRegulation mode="VOLTAGE" regulating="true" targetValue="113.91900000000001" targetDeadband="0.0">
                    <iidm:terminalRef id="T62-61-1" side="TWO"/>
                </iidm:voltageRegulation>
            </iidm:ratioTapChanger>
        </iidm:twoWindingsTransformer>
        <iidm:twoWindingsTransformer id="T7061-61-1" r="0.0" x="3.1475500000000003" ratedU1="13.8" ratedU2="115.0" bus1="B7061" connectableBus1="B7061" voltageLevelId1="VL7061" bus2="B61" connectableBus2="B61" voltageLevelId2="VL61"/>
        <iidm:twoWindingsTransformer id="T7062-62-1" r="0.0" x="17.00206" ratedU1="13.11" ratedU2="230.0" bus1="B7062" connectableBus1="B7062" voltageLevelId1="VL7061" bus2="B62" connectableBus2="B62" voltageLevelId2="VL62"/>
    </iidm:substation>
    <iidm:substation id="S63">
        <iidm:voltageLevel id="VL63" nominalV="115.0" topologyKind="BUS_BREAKER">
            <iidm:busBreakerTopology>
                <iidm:bus id="B63" name="1" v="110.20450000000001" angle="-17.62"/>
            </iidm:busBreakerTopology>
            <iidm:generator id="B63-G" energySource="OTHER" minP="-9999.0" maxP="9999.0" targetP="0.0" localTargetV="110.20450000000001" localTargetQ="0.0" bus="B63" connectableBus="B63">
                <iidm:minMaxReactiveLimits minQ="-25.0" maxQ="25.0"/>
                <iidm:voltageRegulation mode="VOLTAGE" regulating="true"/>
            </iidm:generator>
            <iidm:load id="B63-L" loadType="UNDEFINED" p0="70.0" q0="30.0" bus="B63" connectableBus="B63"/>
        </iidm:voltageLevel>
        <iidm:voltageLevel id="VL64" nominalV="230.0" topologyKind="BUS_BREAKER">
            <iidm:busBreakerTopology>
                <iidm:bus id="B64" name="1" v="218.04" angle="-12.97"/>
            </iidm:busBreakerTopology>
        </iidm:voltageLevel>
        <iidm:twoWindingsTransformer id="T63-64-1" r="0.0" x="20.102" ratedU1="116.95499999999998" ratedU2="230.0" bus1="B63" connectableBus1="B63" voltageLevelId1="VL63" bus2="B64" connectableBus2="B64" voltageLevelId2="VL64">
            <iidm:ratioTapChanger tapPosition="0" loadTapChangingCapabilities="true">
                <iidm:step rho="1.0"/>
                <iidm:voltageRegulation mode="VOLTAGE" regulating="true" targetValue="218.04" targetDeadband="0.0">
                    <iidm:terminalRef id="T63-64-1" side="TWO"/>
                </iidm:voltageRegulation>
            </iidm:ratioTapChanger>
        </iidm:twoWindingsTransformer>
    </iidm:substation>
    <iidm:substation id="S69">
        <iidm:voltageLevel id="VL69" nominalV="115.0" topologyKind="BUS_BREAKER">
            <iidm:busBreakerTopology>
                <iidm:bus id="B69" name="1" v="110.74499999999999" angle="-25.66"/>
            </iidm:busBreakerTopology>
        </iidm:voltageLevel>
        <iidm:voltageLevel id="VL201" nominalV="66.0" topologyKind="BUS_BREAKER">
            <iidm:busBreakerTopology>
                <iidm:bus id="B201" name="1" v="63.9672" angle="-27.49"/>
            </iidm:busBreakerTopology>
            <iidm:load id="B201-L" loadType="UNDEFINED" p0="41.0" q0="14.0" bus="B201" connectableBus="B201"/>
        </iidm:voltageLevel>
        <iidm:twoWindingsTransformer id="T201-69-2" r="0.0" x="12.9605" ratedU1="67.98" ratedU2="115.0" bus1="B201" connectableBus1="B201" voltageLevelId1="VL201" bus2="B69" connectableBus2="B69" voltageLevelId2="VL69">
            <iidm:ratioTapChanger tapPosition="0" loadTapChangingCapabilities="true">
                <iidm:step rho="1.0"/>
                <iidm:voltageRegulation mode="VOLTAGE" regulating="true" targetValue="110.74499999999999" targetDeadband="0.0">
                    <iidm:terminalRef id="T201-69-2" side="TWO"/>
                </iidm:voltageRegulation>
            </iidm:ratioTapChanger>
        </iidm:twoWindingsTransformer>
    </iidm:substation>
    <iidm:substation id="S70">
        <iidm:voltageLevel id="VL70" nominalV="115.0" topologyKind="BUS_BREAKER">
            <iidm:busBreakerTopology>
                <iidm:bus id="B70" name="1" v="109.3995" angle="-35.16"/>
            </iidm:busBreakerTopology>
            <iidm:load id="B70-L" loadType="UNDEFINED" p0="56.0" q0="20.0" bus="B70" connectableBus="B70"/>
        </iidm:voltageLevel>
    </iidm:substation>
    <iidm:substation id="S71">
        <iidm:voltageLevel id="VL71" nominalV="115.0" topologyKind="BUS_BREAKER">
            <iidm:busBreakerTopology>
                <iidm:bus id="B71" name="1" v="112.61949999999999" angle="-29.88"/>
            </iidm:busBreakerTopology>
            <iidm:load id="B71-L" loadType="UNDEFINED" p0="116.0" q0="38.0" bus="B71" connectableBus="B71"/>
        </iidm:voltageLevel>
        <iidm:voltageLevel id="VL7071" nominalV="13.8" topologyKind="BUS_BREAKER">
            <iidm:busBreakerTopology>
                <iidm:bus id="B7071" name="1" v="13.65234" angle="-25.35"/>
            </iidm:busBreakerTopology>
            <iidm:generator id="B7071-G" energySource="OTHER" minP="-9999.0" maxP="9999.0" targetP="116.0" localTargetV="13.65234" localTargetQ="0.0" bus="B7071" connectableBus="B7071">
                <iidm:minMaxReactiveLimits minQ="0.0" maxQ="87.0"/>
                <iidm:voltageRegulation mode="VOLTAGE" regulating="true"/>
            </iidm:generator>
        </iidm:voltageLevel>
        <iidm:twoWindingsTransformer id="T7071-71-1" r="0.0" x="9.119959999999999" ratedU1="13.199700000000002" ratedU2="115.0" bus1="B7071" connectableBus1="B7071" voltageLevelId1="VL7071" bus2="B71" connectableBus2="B71" voltageLevelId2="VL71"/>
    </iidm:substation>
    <iidm:substation id="S72">
        <iidm:voltageLevel id="VL72" nominalV="115.0" topologyKind="BUS_BREAKER">
            <iidm:busBreakerTopology>
                <iidm:bus id="B72" name="1" v="111.504" angle="-27.48"/>
            </iidm:busBreakerTopology>
            <iidm:load id="B72-L" loadType="UNDEFINED" p0="57.0" q0="19.0" bus="B72" connectableBus="B72"/>
        </iidm:voltageLevel>
    </iidm:substation>
    <iidm:substation id="S73">
        <iidm:voltageLevel id="VL73" nominalV="115.0" topologyKind="BUS_BREAKER">
            <iidm:busBreakerTopology>
                <iidm:bus id="B73" name="1" v="112.41250000000001" angle="-25.77"/>
            </iidm:busBreakerTopology>
            <iidm:load id="B73-L" loadType="UNDEFINED" p0="224.0" q0="71.0" bus="B73" connectableBus="B73"/>
        </iidm:voltageLevel>
        <iidm:voltageLevel id="VL74" nominalV="230.0" topologyKind="BUS_BREAKER">
            <iidm:busBreakerTopology>
                <iidm:bus id="B74" name="1" v="229.172" angle="-22.0"/>
            </iidm:busBreakerTopology>
        </iidm:voltageLevel>
        <iidm:twoWindingsTransformer id="T73-74-1" r="0.0" x="12.9076" ratedU1="115.0" ratedU2="230.0" bus1="B73" connectableBus1="B73" voltageLevelId1="VL73" bus2="B74" connectableBus2="B74" voltageLevelId2="VL74">
            <iidm:ratioTapChanger tapPosition="0" loadTapChangingCapabilities="true">
                <iidm:step rho="1.0"/>
                <iidm:voltageRegulation mode="VOLTAGE" regulating="true" targetValue="229.172" targetDeadband="0.0">
                    <iidm:terminalRef id="T73-74-1" side="TWO"/>
                </iidm:voltageRegulation>
            </iidm:ratioTapChanger>
        </iidm:twoWindingsTransformer>
    </iidm:substation>
    <iidm:substation id="S76">
        <iidm:voltageLevel id="VL76" nominalV="115.0" topologyKind="BUS_BREAKER">
            <iidm:busBreakerTopology>
                <iidm:bus id="B76" name="1" v="110.768" angle="-26.54"/>
            </iidm:busBreakerTopology>
            <iidm:generator id="B76-G" energySource="OTHER" minP="-9999.0" maxP="9999.0" targetP="0.0" localTargetV="110.768" localTargetQ="0.0" bus="B76" connectableBus="B76">
                <iidm:minMaxReactiveLimits minQ="12.0" maxQ="35.0"/>
                <iidm:voltageRegulation mode="VOLTAGE" regulating="true"/>
            </iidm:generator>
            <iidm:load id="B76-L" loadType="UNDEFINED" p0="208.0" q0="107.0" bus="B76" connectableBus="B76"/>
        </iidm:voltageLevel>
    </iidm:substation>
    <iidm:substation id="S77">
        <iidm:voltageLevel id="VL77" nominalV="115.0" topologyKind="BUS_BREAKER">
            <iidm:busBreakerTopology>
                <iidm:bus id="B77" name="1" v="113.1255" angle="-24.94"/>
            </iidm:busBreakerTopology>
            <iidm:load id="B77-L" loadType="UNDEFINED" p0="74.0" q0="28.0" bus="B77" connectableBus="B77"/>
        </iidm:voltageLevel>
    </iidm:substation>
    <iidm:substation id="S78">
        <iidm:voltageLevel id="VL78" nominalV="115.0" topologyKind="BUS_BREAKER">
            <iidm:busBreakerTopology>
                <iidm:bus id="B78" name="1" v="113.85" angle="-24.05"/>
            </iidm:busBreakerTopology>
        </iidm:voltageLevel>
    </iidm:substation>
    <iidm:substation id="S79">
        <iidm:voltageLevel id="VL79" nominalV="115.0" topologyKind="BUS_BREAKER">
            <iidm:busBreakerTopology>
                <iidm:bus id="B79" name="1" v="112.92999999999999" angle="-24.97"/>
            </iidm:busBreakerTopology>
            <iidm:load id="B79-L" loadType="UNDEFINED" p0="48.0" q0="14.0" bus="B79" connectableBus="B79"/>
        </iidm:voltageLevel>
    </iidm:substation>
    <iidm:substation id="S80">
        <iidm:voltageLevel id="VL80" nominalV="115.0" topologyKind="BUS_BREAKER">
            <iidm:busBreakerTopology>
                <iidm:bus id="B80" name="1" v="113.52799999999999" angle="-24.97"/>
            </iidm:busBreakerTopology>
            <iidm:load id="B80-L" loadType="UNDEFINED" p0="28.0" q0="7.0" bus="B80" connectableBus="B80"/>
        </iidm:voltageLevel>
    </iidm:substation>
    <iidm:substation id="S81">
        <iidm:voltageLevel id="VL81" nominalV="345.0" topologyKind="BUS_BREAKER">
            <iidm:busBreakerTopology>
                <iidm:bus id="B81" name="1" v="356.73" angle="-18.89"/>
            </iidm:busBreakerTopology>
        </iidm:voltageLevel>
        <iidm:voltageLevel id="VL88" nominalV="230.0" topologyKind="BUS_BREAKER">
            <iidm:busBreakerTopology>
                <iidm:bus id="B88" name="1" v="233.47299999999998" angle="-20.96"/>
            </iidm:busBreakerTopology>
        </iidm:voltageLevel>
        <iidm:twoWindingsTransformer id="T81-88-1" r="0.0" x="10.58" ratedU1="345.0" ratedU2="230.0" bus1="B81" connectableBus1="B81" voltageLevelId1="VL81" bus2="B88" connectableBus2="B88" voltageLevelId2="VL88">
            <iidm:ratioTapChanger tapPosition="0" loadTapChangingCapabilities="true">
                <iidm:step rho="1.0"/>
                <iidm:voltageRegulation mode="VOLTAGE" regulating="true" targetValue="233.47299999999998" targetDeadband="0.0">
                    <iidm:terminalRef id="T81-88-1" side="TWO"/>
                </iidm:voltageRegulation>
            </iidm:ratioTapChanger>
        </iidm:twoWindingsTransformer>
    </iidm:substation>
    <iidm:substation id="S84">
        <iidm:voltageLevel id="VL84" nominalV="115.0" topologyKind="BUS_BREAKER">
            <iidm:busBreakerTopology>
                <iidm:bus id="B84" name="1" v="117.87499999999999" angle="-17.16"/>
            </iidm:busBreakerTopology>
            <iidm:generator id="B84-G" energySource="OTHER" minP="-9999.0" maxP="9999.0" targetP="375.0" localTargetV="117.87499999999999" localTargetQ="0.0" bus="B84" connectableBus="B84">
                <iidm:minMaxReactiveLimits minQ="-240.0" maxQ="240.0"/>
                <iidm:voltageRegulation mode="VOLTAGE" regulating="true"/>
            </iidm:generator>
            <iidm:load id="B84-L" loadType="UNDEFINED" p0="37.0" q0="13.0" bus="B84" connectableBus="B84"/>
        </iidm:voltageLevel>
    </iidm:substation>
    <iidm:substation id="S85">
        <iidm:voltageLevel id="VL85" nominalV="230.0" topologyKind="BUS_BREAKER">
            <iidm:busBreakerTopology>
                <iidm:bus id="B85" name="1" v="227.05599999999998" angle="-17.68"/>
            </iidm:busBreakerTopology>
        </iidm:voltageLevel>
        <iidm:voltageLevel id="VL99" nominalV="115.0" topologyKind="BUS_BREAKER">
            <iidm:busBreakerTopology>
                <iidm:bus id="B99" name="1" v="113.78099999999999" angle="-20.27"/>
            </iidm:busBreakerTopology>
            <iidm:load id="B99-L" loadType="UNDEFINED" p0="83.5" q0="0.0" bus="B99" connectableBus="B99"/>
        </iidm:voltageLevel>
        <iidm:twoWindingsTransformer id="T85-99-1" r="0.0" x="6.348" ratedU1="230.0" ratedU2="115.0" bus1="B85" connectableBus1="B85" voltageLevelId1="VL85" bus2="B99" connectableBus2="B99" voltageLevelId2="VL99">
            <iidm:ratioTapChanger tapPosition="0" loadTapChangingCapabilities="true">
                <iidm:step rho="1.0"/>
                <iidm:voltageRegulation mode="VOLTAGE" regulating="true" targetValue="113.78099999999999" targetDeadband="0.0">
                    <iidm:terminalRef id="T85-99-1" side="TWO"/>
                </iidm:voltageRegulation>
            </iidm:ratioTapChanger>
        </iidm:twoWindingsTransformer>
    </iidm:substation>
    <iidm:substation id="S86">
        <iidm:voltageLevel id="VL86" nominalV="230.0" topologyKind="BUS_BREAKER">
            <iidm:busBreakerTopology>
                <iidm:bus id="B86" name="1" v="227.907" angle="-14.19"/>
            </iidm:busBreakerTopology>
        </iidm:voltageLevel>
        <iidm:voltageLevel id="VL102" nominalV="115.0" topologyKind="BUS_BREAKER">
            <iidm:busBreakerTopology>
                <iidm:bus id="B102" name="1" v="115.09199999999998" angle="-15.23"/>
            </iidm:busBreakerTopology>
            <iidm:load id="B102-L" loadType="UNDEFINED" p0="77.8" q0="0.0" bus="B102" connectableBus="B102"/>
        </iidm:voltageLevel>
        <iidm:twoWindingsTransformer id="T86-102-1" r="0.0" x="6.348" ratedU1="230.0" ratedU2="115.0" bus1="B86" connectableBus1="B86" voltageLevelId1="VL86" bus2="B102" connectableBus2="B102" voltageLevelId2="VL102">
            <iidm:ratioTapChanger tapPosition="0" loadTapChangingCapabilities="true">
                <iidm:step rho="1.0"/>
                <iidm:voltageRegulation mode="VOLTAGE" regulating="true" targetValue="115.09199999999998" targetDeadband="0.0">
                    <iidm:terminalRef id="T86-102-1" side="TWO"/>
                </iidm:voltageRegulation>
            </iidm:ratioTapChanger>
        </iidm:twoWindingsTransformer>
    </iidm:substation>
    <iidm:substation id="S87">
        <iidm:voltageLevel id="VL87" nominalV="230.0" topologyKind="BUS_BREAKER">
            <iidm:busBreakerTopology>
                <iidm:bus id="B87" name="1" v="228.183" angle="-7.77"/>
            </iidm:busBreakerTopology>
        </iidm:voltageLevel>
        <iidm:voltageLevel id="VL94" nominalV="115.0" topologyKind="BUS_BREAKER">
            <iidm:busBreakerTopology>
                <iidm:bus id="B94" name="1" v="114.195" angle="-9.42"/>
            </iidm:busBreakerTopology>
            <iidm:load id="B94-L" loadType="UNDEFINED" p0="60.3" q0="0.0" bus="B94" connectableBus="B94"/>
        </iidm:voltageLevel>
        <iidm:twoWindingsTransformer id="T87-94-1" r="0.0" x="6.0835" ratedU1="233.45" ratedU2="115.0" bus1="B87" connectableBus1="B87" voltageLevelId1="VL87" bus2="B94" connectableBus2="B94" voltageLevelId2="VL94">
            <iidm:ratioTapChanger tapPosition="0" loadTapChangingCapabilities="true">
                <iidm:step rho="1.0"/>
                <iidm:voltageRegulation mode="VOLTAGE" regulating="true" targetValue="114.195" targetDeadband="0.0">
                    <iidm:terminalRef id="T87-94-1" side="TWO"/>
                </iidm:voltageRegulation>
            </iidm:ratioTapChanger>
        </iidm:twoWindingsTransformer>
    </iidm:substation>
    <iidm:substation id="S89">
        <iidm:voltageLevel id="VL89" nominalV="115.0" topologyKind="BUS_BREAKER">
            <iidm:busBreakerTopology>
                <iidm:bus id="B89" name="1" v="118.64550000000001" angle="-11.13"/>
            </iidm:busBreakerTopology>
            <iidm:load id="B89-L" loadType="UNDEFINED" p0="44.2" q0="0.0" bus="B89" connectableBus="B89"/>
        </iidm:voltageLevel>
    </iidm:substation>
    <iidm:substation id="S90">
        <iidm:voltageLevel id="VL90" nominalV="115.0" topologyKind="BUS_BREAKER">
            <iidm:busBreakerTopology>
                <iidm:bus id="B90" name="1" v="118.12799999999999" angle="-11.23"/>
            </iidm:busBreakerTopology>
...